/*--------------------------------*- C++ -*----------------------------------*\
| =========                 |                                                 |
| \\      /  F ield         | OpenFOAM: The Open Source CFD Toolbox           |
|  \\    /   O peration     | Version:  2.2.0                                 |
|   \\  /    A nd           | Web:      www.OpenFOAM.org                      |
|    \\/     M anipulation  |                                                 |
\*---------------------------------------------------------------------------*/
FoamFile
{
    version     2.0;
    format      ascii;
    class       volScalarField;
    object      nut;
}
// * * * * * * * * * * * * * * * * * * * * * * * * * * * * * * * * * * * * * //

dimensions      [0 2 -1 0 0 0 0];

internalField   uniform 0.14;

boundaryField
{
    inlet
    {
        type           fixedValue;
        value uniform 0.14;
    }

    outlet
    {
        type            zeroGradient;
    }

    blade
    {
        type            nutUSpaldingWallFunction;
        value           uniform 0;
    }

    hub
    {
        type            empty;
    }

    left_periodic
    {
        type cyclic;
    }

    right_periodic
    {
        type cyclic;
    }
}

// ************************************************************************* //
