// -*- C++ -*-
// File generated by PyFoam - sorry for the ugliness

FoamFile
{
 version 2.0;
 format ascii;
 class volVectorField;
 object U;
}

dimensions [ 0 1 -1 0 0 0 0 ];

internalField uniform (30 0 0);

boundaryField
{
  inlet
  {
    type freestream;
    freestreamValue uniform (30 0 0);
  }
  outlet
  {
    type freestream;
    freestreamValue uniform (30 0 0);
  }
  wall
  {
    type fixedValue;
    value uniform (0 0 0);
  }
  root
  {
    type empty;
  }
} 	// ************************************************************************* //

